*SPEF "IEEE 1481-1999"
*DESIGN "maf"
*DATE "Fri Mar 13 11:16:20 2015"
*VENDOR "SYNOPSYS INC"
*PROGRAM "Synopsys Design Compiler cmos"
*VERSION "B-2008.09"
*DESIGN_FLOW "SYNTHESIS"
*DIVIDER /
*DELIMITER :
*BUS_DELIMITER []
*T_UNIT 1.0 NS
*C_UNIT 1.0 PF
*R_UNIT 1.0 KOHM
*L_UNIT 1.0 HENRY

*PORTS

clk I *L 0.000e+00 *S 0.000e+00 0.000e+00 
nj_mode I *L 0.000e+00 *S 0.000e+00 0.000e+00 
op_vld I *L 0.000e+00 *S 0.000e+00 0.000e+00 
a\[31\] I *L 0.000e+00 *S 0.000e+00 0.000e+00 
a\[30\] I *L 0.000e+00 *S 0.000e+00 0.000e+00 
a\[29\] I *L 0.000e+00 *S 0.000e+00 0.000e+00 
a\[28\] I *L 0.000e+00 *S 0.000e+00 0.000e+00 
a\[27\] I *L 0.000e+00 *S 0.000e+00 0.000e+00 
a\[26\] I *L 0.000e+00 *S 0.000e+00 0.000e+00 
a\[25\] I *L 0.000e+00 *S 0.000e+00 0.000e+00 
a\[24\] I *L 0.000e+00 *S 0.000e+00 0.000e+00 
a\[23\] I *L 0.000e+00 *S 0.000e+00 0.000e+00 
a\[22\] I *L 0.000e+00 *S 0.000e+00 0.000e+00 
a\[21\] I *L 0.000e+00 *S 0.000e+00 0.000e+00 
a\[20\] I *L 0.000e+00 *S 0.000e+00 0.000e+00 
a\[19\] I *L 0.000e+00 *S 0.000e+00 0.000e+00 
a\[18\] I *L 0.000e+00 *S 0.000e+00 0.000e+00 
a\[17\] I *L 0.000e+00 *S 0.000e+00 0.000e+00 
a\[16\] I *L 0.000e+00 *S 0.000e+00 0.000e+00 
a\[15\] I *L 0.000e+00 *S 0.000e+00 0.000e+00 
a\[14\] I *L 0.000e+00 *S 0.000e+00 0.000e+00 
a\[13\] I *L 0.000e+00 *S 0.000e+00 0.000e+00 
a\[12\] I *L 0.000e+00 *S 0.000e+00 0.000e+00 
a\[11\] I *L 0.000e+00 *S 0.000e+00 0.000e+00 
a\[10\] I *L 0.000e+00 *S 0.000e+00 0.000e+00 
a\[9\] I *L 0.000e+00 *S 0.000e+00 0.000e+00 
a\[8\] I *L 0.000e+00 *S 0.000e+00 0.000e+00 
a\[7\] I *L 0.000e+00 *S 0.000e+00 0.000e+00 
a\[6\] I *L 0.000e+00 *S 0.000e+00 0.000e+00 
a\[5\] I *L 0.000e+00 *S 0.000e+00 0.000e+00 
a\[4\] I *L 0.000e+00 *S 0.000e+00 0.000e+00 
a\[3\] I *L 0.000e+00 *S 0.000e+00 0.000e+00 
a\[2\] I *L 0.000e+00 *S 0.000e+00 0.000e+00 
a\[1\] I *L 0.000e+00 *S 0.000e+00 0.000e+00 
a\[0\] I *L 0.000e+00 *S 0.000e+00 0.000e+00 
b\[31\] I *L 0.000e+00 *S 0.000e+00 0.000e+00 
b\[30\] I *L 0.000e+00 *S 0.000e+00 0.000e+00 
b\[29\] I *L 0.000e+00 *S 0.000e+00 0.000e+00 
b\[28\] I *L 0.000e+00 *S 0.000e+00 0.000e+00 
b\[27\] I *L 0.000e+00 *S 0.000e+00 0.000e+00 
b\[26\] I *L 0.000e+00 *S 0.000e+00 0.000e+00 
b\[25\] I *L 0.000e+00 *S 0.000e+00 0.000e+00 
b\[24\] I *L 0.000e+00 *S 0.000e+00 0.000e+00 
b\[23\] I *L 0.000e+00 *S 0.000e+00 0.000e+00 
b\[22\] I *L 0.000e+00 *S 0.000e+00 0.000e+00 
b\[21\] I *L 0.000e+00 *S 0.000e+00 0.000e+00 
b\[20\] I *L 0.000e+00 *S 0.000e+00 0.000e+00 
b\[19\] I *L 0.000e+00 *S 0.000e+00 0.000e+00 
b\[18\] I *L 0.000e+00 *S 0.000e+00 0.000e+00 
b\[17\] I *L 0.000e+00 *S 0.000e+00 0.000e+00 
b\[16\] I *L 0.000e+00 *S 0.000e+00 0.000e+00 
b\[15\] I *L 0.000e+00 *S 0.000e+00 0.000e+00 
b\[14\] I *L 0.000e+00 *S 0.000e+00 0.000e+00 
b\[13\] I *L 0.000e+00 *S 0.000e+00 0.000e+00 
b\[12\] I *L 0.000e+00 *S 0.000e+00 0.000e+00 
b\[11\] I *L 0.000e+00 *S 0.000e+00 0.000e+00 
b\[10\] I *L 0.000e+00 *S 0.000e+00 0.000e+00 
b\[9\] I *L 0.000e+00 *S 0.000e+00 0.000e+00 
b\[8\] I *L 0.000e+00 *S 0.000e+00 0.000e+00 
b\[7\] I *L 0.000e+00 *S 0.000e+00 0.000e+00 
b\[6\] I *L 0.000e+00 *S 0.000e+00 0.000e+00 
b\[5\] I *L 0.000e+00 *S 0.000e+00 0.000e+00 
b\[4\] I *L 0.000e+00 *S 0.000e+00 0.000e+00 
b\[3\] I *L 0.000e+00 *S 0.000e+00 0.000e+00 
b\[2\] I *L 0.000e+00 *S 0.000e+00 0.000e+00 
b\[1\] I *L 0.000e+00 *S 0.000e+00 0.000e+00 
b\[0\] I *L 0.000e+00 *S 0.000e+00 0.000e+00 
c\[31\] I *L 0.000e+00 *S 0.000e+00 0.000e+00 
c\[30\] I *L 0.000e+00 *S 0.000e+00 0.000e+00 
c\[29\] I *L 0.000e+00 *S 0.000e+00 0.000e+00 
c\[28\] I *L 0.000e+00 *S 0.000e+00 0.000e+00 
c\[27\] I *L 0.000e+00 *S 0.000e+00 0.000e+00 
c\[26\] I *L 0.000e+00 *S 0.000e+00 0.000e+00 
c\[25\] I *L 0.000e+00 *S 0.000e+00 0.000e+00 
c\[24\] I *L 0.000e+00 *S 0.000e+00 0.000e+00 
c\[23\] I *L 0.000e+00 *S 0.000e+00 0.000e+00 
c\[22\] I *L 0.000e+00 *S 0.000e+00 0.000e+00 
c\[21\] I *L 0.000e+00 *S 0.000e+00 0.000e+00 
c\[20\] I *L 0.000e+00 *S 0.000e+00 0.000e+00 
c\[19\] I *L 0.000e+00 *S 0.000e+00 0.000e+00 
c\[18\] I *L 0.000e+00 *S 0.000e+00 0.000e+00 
c\[17\] I *L 0.000e+00 *S 0.000e+00 0.000e+00 
c\[16\] I *L 0.000e+00 *S 0.000e+00 0.000e+00 
c\[15\] I *L 0.000e+00 *S 0.000e+00 0.000e+00 
c\[14\] I *L 0.000e+00 *S 0.000e+00 0.000e+00 
c\[13\] I *L 0.000e+00 *S 0.000e+00 0.000e+00 
c\[12\] I *L 0.000e+00 *S 0.000e+00 0.000e+00 
c\[11\] I *L 0.000e+00 *S 0.000e+00 0.000e+00 
c\[10\] I *L 0.000e+00 *S 0.000e+00 0.000e+00 
c\[9\] I *L 0.000e+00 *S 0.000e+00 0.000e+00 
c\[8\] I *L 0.000e+00 *S 0.000e+00 0.000e+00 
c\[7\] I *L 0.000e+00 *S 0.000e+00 0.000e+00 
c\[6\] I *L 0.000e+00 *S 0.000e+00 0.000e+00 
c\[5\] I *L 0.000e+00 *S 0.000e+00 0.000e+00 
c\[4\] I *L 0.000e+00 *S 0.000e+00 0.000e+00 
c\[3\] I *L 0.000e+00 *S 0.000e+00 0.000e+00 
c\[2\] I *L 0.000e+00 *S 0.000e+00 0.000e+00 
c\[1\] I *L 0.000e+00 *S 0.000e+00 0.000e+00 
c\[0\] I *L 0.000e+00 *S 0.000e+00 0.000e+00 
res\[31\] O *L 9.246e-02 *S 2.453e-01 1.673e-01 
res\[30\] O *L 9.246e-02 *S 2.453e-01 1.673e-01 
res\[29\] O *L 9.246e-02 *S 2.453e-01 1.673e-01 
res\[28\] O *L 9.246e-02 *S 2.453e-01 1.673e-01 
res\[27\] O *L 9.246e-02 *S 2.453e-01 1.673e-01 
res\[26\] O *L 9.246e-02 *S 2.453e-01 1.673e-01 
res\[25\] O *L 9.246e-02 *S 2.453e-01 1.673e-01 
res\[24\] O *L 9.246e-02 *S 2.453e-01 1.673e-01 
res\[23\] O *L 9.246e-02 *S 2.453e-01 1.673e-01 
res\[22\] O *L 9.246e-02 *S 2.453e-01 1.673e-01 
res\[21\] O *L 9.246e-02 *S 2.453e-01 1.673e-01 
res\[20\] O *L 9.246e-02 *S 2.453e-01 1.673e-01 
res\[19\] O *L 9.246e-02 *S 2.453e-01 1.673e-01 
res\[18\] O *L 9.246e-02 *S 2.453e-01 1.673e-01 
res\[17\] O *L 9.246e-02 *S 2.453e-01 1.673e-01 
res\[16\] O *L 9.246e-02 *S 2.453e-01 1.673e-01 
res\[15\] O *L 9.246e-02 *S 2.453e-01 1.673e-01 
res\[14\] O *L 9.246e-02 *S 2.453e-01 1.673e-01 
res\[13\] O *L 9.246e-02 *S 2.453e-01 1.673e-01 
res\[12\] O *L 9.246e-02 *S 2.453e-01 1.673e-01 
res\[11\] O *L 9.246e-02 *S 2.453e-01 1.673e-01 
res\[10\] O *L 9.246e-02 *S 2.453e-01 1.673e-01 
res\[9\] O *L 9.246e-02 *S 2.453e-01 1.673e-01 
res\[8\] O *L 9.246e-02 *S 2.453e-01 1.673e-01 
res\[7\] O *L 9.246e-02 *S 2.453e-01 1.673e-01 
res\[6\] O *L 9.246e-02 *S 2.453e-01 1.673e-01 
res\[5\] O *L 9.246e-02 *S 2.453e-01 1.673e-01 
res\[4\] O *L 9.246e-02 *S 2.453e-01 1.673e-01 
res\[3\] O *L 9.246e-02 *S 2.453e-01 1.673e-01 
res\[2\] O *L 9.246e-02 *S 2.453e-01 1.673e-01 
res\[1\] O *L 9.246e-02 *S 2.453e-01 1.673e-01 
res\[0\] O *L 9.246e-02 *S 2.453e-01 1.673e-01 
res_rdy O *L 9.246e-02 *S 2.458e-01 1.717e-01 

*R_NET clk 6.121e+00
*DRIVER clk
*CELL NULL
*C2_R1_C1 3.061e+00 2.680e-03 3.061e+00 
*LOADS
*RC frac_inter_norm_r2_reg_21_:CK 9.080e-08
*RC frac_inter_norm_r2_reg_17_:CK 9.087e-08
*RC frac_inter_norm_r2_reg_16_:CK 7.903e-08
*RC frac_inter_norm_r2_reg_11_:CK 9.080e-08
*RC frac_inter_norm_r2_reg_8_:CK 7.903e-08
*RC frac_inter_norm_r2_reg_12_:CK 9.087e-08
*RC c_frac_align_h_r0_reg_22_:CK 6.979e-08
*RC frac_inter_norm_r2_reg_15_:CK 9.087e-08
*RC frac_inter_norm_r2_reg_5_:CK 9.080e-08
*RC c_frac_align_h_r0_reg_19_:CK 6.533e-08
*RC c_frac_align_m_r0_reg_3_:CK 6.979e-08
*RC c_frac_align_h_r0_reg_10_:CK 6.979e-08
*RC res_spec_r0_reg_28_:CK 6.533e-08
*RC c_frac_align_m_r0_reg_2_:CK 6.979e-08
*RC c_frac_align_m_r0_reg_18_:CK 6.979e-08
*RC c_frac_align_m_r0_reg_42_:CK 6.979e-08
*RC c_frac_align_h_r0_reg_1_:CK 6.979e-08
*RC c_frac_align_m_r0_reg_45_:CK 6.979e-08
*RC c_frac_align_h_r0_reg_9_:CK 6.979e-08
*RC frac_inter_norm_r2_reg_7_:CK 9.087e-08
*RC frac_inter_norm_r2_reg_0_:CK 9.080e-08
*RC frac_inter_norm_r2_reg_13_:CK 9.087e-08
*RC exp_tmp_r0_reg_6_:CK 6.533e-08
*RC exp_tmp_r0_reg_5_:CK 6.533e-08
*RC exp_tmp_r0_reg_0_:CK 6.533e-08
*RC denorm_m_r2_reg:CK 9.080e-08
*RC frac_inter_norm_r2_reg_6_:CK 9.080e-08
*RC exp_tmp_r0_reg_3_:CK 6.533e-08
*RC frac_inter_norm_r2_reg_14_:CK 7.903e-08
*RC frac_inter_norm_r2_reg_10_:CK 9.087e-08
*RC frac_inter_norm_r2_reg_18_:CK 9.087e-08
*RC exp_tmp_r0_reg_7_:CK 6.979e-08
*RC frac_inter_norm_r2_reg_1_:CK 7.903e-08
*RC c_frac_align_h_r0_reg_16_:CK 6.979e-08
*RC sum_r0_reg_23_:CK 6.979e-08
*RC c_frac_align_h_r0_reg_20_:CK 6.979e-08
*RC frac_inter_norm_r2_reg_9_:CK 9.080e-08
*RC frac_inter_norm_r2_reg_2_:CK 9.080e-08
*RC c_frac_align_m_r0_reg_46_:CK 6.979e-08
*RC c_frac_align_h_r0_reg_25_:CK 6.979e-08
*RC c_frac_align_m_r0_reg_43_:CK 6.979e-08
*RC c_frac_align_m_r0_reg_21_:CK 6.979e-08
*RC c_frac_align_m_r0_reg_26_:CK 6.979e-08
*RC c_frac_align_h_r0_reg_6_:CK 6.979e-08
*RC c_frac_align_m_r0_reg_27_:CK 6.979e-08
*RC c_frac_align_m_r0_reg_38_:CK 6.979e-08
*RC c_frac_align_m_r0_reg_10_:CK 6.979e-08
*RC c_frac_align_m_r0_reg_12_:CK 6.979e-08
*RC c_frac_align_m_r0_reg_28_:CK 6.979e-08
*RC c_frac_align_m_r0_reg_8_:CK 6.979e-08
*RC c_frac_align_m_r0_reg_17_:CK 6.979e-08
*RC c_frac_align_h_r0_reg_15_:CK 6.979e-08
*RC c_frac_align_m_r0_reg_4_:CK 6.979e-08
*RC c_frac_align_m_r0_reg_25_:CK 6.979e-08
*RC c_frac_align_m_r0_reg_6_:CK 6.979e-08
*RC c_frac_align_m_r0_reg_36_:CK 6.979e-08
*RC c_frac_align_h_r0_reg_13_:CK 6.979e-08
*RC c_frac_align_h_r0_reg_23_:CK 6.533e-08
*RC c_frac_align_h_r0_reg_8_:CK 6.979e-08
*RC c_frac_align_h_r0_reg_2_:CK 6.533e-08
*RC c_frac_align_m_r0_reg_35_:CK 6.979e-08
*RC c_frac_align_m_r0_reg_31_:CK 6.979e-08
*RC c_frac_align_m_r0_reg_15_:CK 6.979e-08
*RC frac_inter_norm_r2_reg_3_:CK 9.080e-08
*RC c_frac_align_m_r0_reg_29_:CK 6.979e-08
*RC frac_inter_r1_reg_10_:CK 9.080e-08
*RC res_reg_4_:CK 8.010e-08
*RC res_reg_10_:CK 8.010e-08
*RC res_reg_14_:CK 8.010e-08
*RC res_reg_7_:CK 8.010e-08
*RC res_reg_19_:CK 8.010e-08
*RC res_reg_20_:CK 8.010e-08
*RC res_reg_21_:CK 8.010e-08
*RC res_reg_3_:CK 8.010e-08
*RC res_reg_9_:CK 8.010e-08
*RC res_reg_16_:CK 8.010e-08
*RC res_reg_2_:CK 8.010e-08
*RC res_reg_6_:CK 8.010e-08
*RC res_reg_8_:CK 8.010e-08
*RC res_reg_18_:CK 8.010e-08
*RC res_reg_1_:CK 8.010e-08
*RC res_reg_22_:CK 8.010e-08
*RC res_reg_12_:CK 8.010e-08
*RC res_reg_5_:CK 8.010e-08
*RC res_reg_11_:CK 8.010e-08
*RC res_reg_13_:CK 8.010e-08
*RC res_reg_15_:CK 8.010e-08
*RC res_reg_17_:CK 8.010e-08
*RC res_reg_23_:CK 8.010e-08
*RC res_reg_24_:CK 8.010e-08
*RC res_reg_25_:CK 8.010e-08
*RC res_reg_26_:CK 8.010e-08
*RC res_reg_28_:CK 8.010e-08
*RC res_reg_29_:CK 8.010e-08
*RC res_reg_30_:CK 8.010e-08
*RC res_rdy_reg:CK 6.972e-08
*RC frac_inter_r1_reg_56_:CK 9.080e-08
*RC zero_m_r2_reg:CK 7.780e-08
*RC frac_inter_norm_r2_reg_4_:CK 6.777e-08
*RC inv_mask_r0_reg:CK 6.979e-08
*RC carry_r0_reg_15_:CK 6.979e-08
*RC carry_r0_reg_3_:CK 6.979e-08
*RC sum_r0_reg_14_:CK 6.979e-08
*RC sum_r0_reg_2_:CK 6.979e-08
*RC carry_r0_reg_20_:CK 6.533e-08
*RC carry_r0_reg_21_:CK 6.979e-08
*RC carry_r0_reg_31_:CK 6.979e-08
*RC carry_r0_reg_14_:CK 6.979e-08
*RC sum_r0_reg_30_:CK 6.979e-08
*RC carry_r0_reg_7_:CK 6.979e-08
*RC sum_r0_reg_13_:CK 6.979e-08
*RC c_frac_align_h_r0_reg_14_:CK 6.979e-08
*RC carry_r0_reg_29_:CK 6.979e-08
*RC carry_r0_reg_24_:CK 6.533e-08
*RC carry_r0_reg_17_:CK 6.979e-08
*RC carry_r0_reg_25_:CK 6.979e-08
*RC carry_r0_reg_30_:CK 6.979e-08
*RC carry_r0_reg_11_:CK 6.979e-08
*RC carry_r0_reg_4_:CK 6.979e-08
*RC sum_r0_reg_6_:CK 6.979e-08
*RC carry_r0_reg_5_:CK 6.979e-08
*RC sum_r0_reg_3_:CK 6.979e-08
*RC sum_r0_reg_10_:CK 6.979e-08
*RC sum_r0_reg_29_:CK 6.979e-08
*RC carry_r0_reg_27_:CK 6.979e-08
*RC carry_r0_reg_10_:CK 6.979e-08
*RC carry_r0_reg_23_:CK 6.979e-08
*RC c_frac_align_h_r0_reg_18_:CK 6.979e-08
*RC c_frac_align_m_r0_reg_47_:CK 6.979e-08
*RC carry_r0_reg_28_:CK 6.979e-08
*RC c_frac_align_m_r0_reg_11_:CK 6.979e-08
*RC sum_r0_reg_22_:CK 6.979e-08
*RC c_frac_align_h_r0_reg_17_:CK 6.979e-08
*RC carry_r0_reg_26_:CK 6.979e-08
*RC carry_r0_reg_45_:CK 6.979e-08
*RC sum_r0_reg_4_:CK 6.979e-08
*RC c_frac_align_h_r0_reg_7_:CK 6.979e-08
*RC carry_r0_reg_9_:CK 6.979e-08
*RC sum_r0_reg_44_:CK 6.533e-08
*RC carry_r0_reg_8_:CK 6.979e-08
*RC sum_r0_reg_9_:CK 6.979e-08
*RC c_frac_align_l_r0_reg_21_:CK 6.979e-08
*RC c_frac_align_h_r0_reg_11_:CK 6.979e-08
*RC c_frac_align_h_r0_reg_21_:CK 6.979e-08
*RC c_frac_align_m_r0_reg_13_:CK 6.979e-08
*RC c_frac_align_m_r0_reg_37_:CK 6.979e-08
*RC sum_r0_reg_15_:CK 6.979e-08
*RC c_frac_align_h_r0_reg_3_:CK 6.979e-08
*RC sum_r0_reg_7_:CK 6.979e-08
*RC sum_r0_reg_21_:CK 6.979e-08
*RC c_frac_align_m_r0_reg_32_:CK 6.979e-08
*RC c_frac_align_l_r0_reg_19_:CK 6.979e-08
*RC c_frac_align_m_r0_reg_20_:CK 6.979e-08
*RC c_frac_align_m_r0_reg_44_:CK 6.979e-08
*RC c_frac_align_m_r0_reg_34_:CK 6.979e-08
*RC c_frac_align_l_r0_reg_4_:CK 6.979e-08
*RC c_frac_align_l_r0_reg_10_:CK 6.979e-08
*RC c_frac_align_m_r0_reg_23_:CK 6.979e-08
*RC sum_r0_reg_45_:CK 6.443e-08
*RC spec_mask_r0_reg:CK 6.443e-08
*RC res_reg_0_:CK 8.010e-08
*RC res_reg_27_:CK 8.010e-08
*RC carry_r0_reg_2_:CK 6.443e-08
*RC carry_r0_reg_44_:CK 6.443e-08
*RC carry_r0_reg_46_:CK 6.443e-08
*RC sum_r0_reg_0_:CK 6.443e-08
*RC exp_tmp_r1_reg_5_:CK 6.972e-08
*RC frac_inter_h_s_r1_reg:CK 6.519e-08
*RC exp_tmp_r1_reg_7_:CK 6.519e-08
*RC exp_norm_r2_reg_6_:CK 6.777e-08
*RC op_vld_r0_reg:CK 6.777e-08
*RC nj_mode_r0_reg:CK 6.443e-08
*RC res_reg_31_:CK 8.010e-08
*RC exp_tmp_r1_reg_8_:CK 6.777e-08
*RC exp_tmp_r1_reg_4_:CK 9.080e-08
*RC frac_inter_r1_reg_22_:CK 9.080e-08
*RC frac_inter_r1_reg_21_:CK 9.080e-08
*RC c_frac_align_m_r0_reg_14_:CK 6.979e-08
*RC c_frac_align_h_r0_reg_12_:CK 6.979e-08
*RC c_frac_align_m_r0_reg_0_:CK 6.979e-08
*RC exp_tmp_r1_reg_2_:CK 9.080e-08
*RC c_frac_align_m_r0_reg_30_:CK 6.979e-08
*RC frac_inter_r1_reg_72_:CK 9.080e-08
*RC frac_inter_r1_reg_2_:CK 9.080e-08
*RC exp_norm_r2_reg_5_:CK 6.777e-08
*RC c_frac_align_m_r0_reg_7_:CK 6.979e-08
*RC c_frac_align_m_r0_reg_41_:CK 6.979e-08
*RC c_frac_align_m_r0_reg_16_:CK 6.979e-08
*RC c_frac_align_m_r0_reg_33_:CK 6.979e-08
*RC frac_inter_r1_reg_42_:CK 9.080e-08
*RC c_frac_align_m_r0_reg_1_:CK 6.979e-08
*RC frac_inter_r1_reg_67_:CK 9.080e-08
*RC frac_inter_r1_reg_43_:CK 9.080e-08
*RC frac_inter_r1_reg_60_:CK 9.080e-08
*RC frac_inter_r1_reg_74_:CK 9.080e-08
*RC frac_inter_r1_reg_59_:CK 9.080e-08
*RC frac_inter_r1_reg_26_:CK 9.080e-08
*RC c_frac_align_m_r0_reg_9_:CK 6.979e-08
*RC c_frac_align_m_r0_reg_5_:CK 6.979e-08
*RC c_frac_align_m_r0_reg_19_:CK 6.979e-08
*RC c_frac_align_m_r0_reg_39_:CK 6.979e-08
*RC exp_norm_r2_reg_2_:CK 6.777e-08
*RC c_frac_align_m_r0_reg_40_:CK 6.979e-08
*RC frac_inter_r1_reg_35_:CK 9.080e-08
*RC frac_inter_r1_reg_58_:CK 9.080e-08
*RC frac_inter_r1_reg_50_:CK 9.080e-08
*RC frac_inter_r1_reg_70_:CK 9.080e-08
*RC frac_inter_r1_reg_30_:CK 9.080e-08
*RC c_frac_align_m_r0_reg_24_:CK 6.979e-08
*RC c_frac_align_l_r0_reg_13_:CK 6.979e-08
*RC frac_inter_r1_reg_51_:CK 9.080e-08
*RC exp_norm_r2_reg_4_:CK 6.777e-08
*RC frac_inter_r1_reg_28_:CK 9.080e-08
*RC frac_inter_r1_reg_12_:CK 9.080e-08
*RC frac_inter_r1_reg_55_:CK 9.080e-08
*RC frac_inter_r1_reg_52_:CK 9.080e-08
*RC frac_inter_r1_reg_64_:CK 9.080e-08
*RC c_frac_align_h_r0_reg_0_:CK 6.979e-08
*RC c_frac_align_h_r0_reg_4_:CK 6.979e-08
*RC c_frac_align_h_r0_reg_5_:CK 6.979e-08
*RC frac_inter_r1_reg_69_:CK 9.080e-08
*RC frac_inter_r1_reg_66_:CK 9.080e-08
*RC frac_inter_r1_reg_27_:CK 9.080e-08
*RC frac_inter_r1_reg_46_:CK 9.080e-08
*RC frac_inter_r1_reg_40_:CK 9.080e-08
*RC c_frac_align_l_r0_reg_3_:CK 6.979e-08
*RC frac_inter_r1_reg_32_:CK 9.080e-08
*RC frac_inter_r1_reg_31_:CK 9.080e-08
*RC c_frac_align_l_r0_reg_22_:CK 6.979e-08
*RC frac_inter_r1_reg_63_:CK 9.080e-08
*RC c_frac_align_l_r0_reg_2_:CK 6.979e-08
*RC c_frac_align_l_r0_reg_5_:CK 6.979e-08
*RC frac_inter_r1_reg_34_:CK 9.080e-08
*RC c_frac_align_l_r0_reg_0_:CK 6.979e-08
*RC frac_inter_r1_reg_38_:CK 9.080e-08
*RC c_frac_align_l_r0_reg_1_:CK 6.979e-08
*RC frac_inter_r1_reg_62_:CK 9.080e-08
*RC frac_inter_r1_reg_47_:CK 9.080e-08
*RC frac_inter_r1_reg_44_:CK 9.080e-08
*RC frac_inter_r1_reg_54_:CK 9.080e-08
*RC frac_inter_r1_reg_11_:CK 9.080e-08
*RC frac_inter_r1_reg_20_:CK 9.080e-08
*RC frac_inter_r1_reg_19_:CK 9.080e-08
*RC c_frac_align_l_r0_reg_23_:CK 6.979e-08
*RC c_frac_align_l_r0_reg_18_:CK 6.979e-08
*RC c_frac_align_l_r0_reg_20_:CK 6.979e-08
*RC c_frac_align_l_r0_reg_12_:CK 6.979e-08
*RC c_frac_align_l_r0_reg_14_:CK 6.979e-08
*RC frac_inter_r1_reg_18_:CK 9.080e-08
*RC frac_inter_r1_reg_73_:CK 9.080e-08
*RC frac_inter_r1_reg_65_:CK 9.080e-08
*RC frac_inter_r1_reg_36_:CK 9.080e-08
*RC frac_inter_r1_reg_17_:CK 9.080e-08
*RC frac_inter_r1_reg_24_:CK 9.080e-08
*RC frac_inter_r1_reg_14_:CK 9.080e-08
*RC frac_inter_r1_reg_13_:CK 9.080e-08
*RC frac_inter_r1_reg_45_:CK 9.080e-08
*RC c_frac_align_l_r0_reg_9_:CK 6.979e-08
*RC c_frac_align_l_r0_reg_11_:CK 6.979e-08
*RC c_frac_align_l_r0_reg_6_:CK 6.979e-08
*RC c_frac_align_l_r0_reg_8_:CK 6.979e-08
*RC c_frac_align_l_r0_reg_7_:CK 6.979e-08
*RC frac_inter_r1_reg_71_:CK 9.080e-08
*RC c_frac_align_l_r0_reg_16_:CK 6.979e-08
*RC c_frac_align_l_r0_reg_15_:CK 6.979e-08
*RC c_frac_align_l_r0_reg_17_:CK 6.979e-08
*RC frac_inter_r1_reg_57_:CK 9.080e-08
*RC frac_inter_r1_reg_49_:CK 9.080e-08
*RC frac_inter_r1_reg_37_:CK 9.080e-08
*RC frac_inter_r1_reg_48_:CK 9.080e-08
*RC frac_inter_r1_reg_61_:CK 9.080e-08
*RC frac_inter_r1_reg_39_:CK 9.080e-08
*RC frac_inter_r1_reg_1_:CK 9.080e-08
*RC frac_inter_r1_reg_15_:CK 9.080e-08
*RC frac_inter_r1_reg_16_:CK 9.080e-08
*RC frac_inter_r1_reg_68_:CK 9.080e-08
*RC frac_inter_r1_reg_29_:CK 9.080e-08
*RC frac_inter_r1_reg_53_:CK 9.080e-08
*RC frac_inter_r1_reg_8_:CK 9.080e-08
*RC frac_inter_r1_reg_3_:CK 9.080e-08
*RC frac_inter_r1_reg_7_:CK 9.080e-08
*RC frac_inter_r1_reg_9_:CK 9.080e-08
*RC frac_inter_r1_reg_25_:CK 9.080e-08
*RC frac_inter_r1_reg_4_:CK 9.080e-08
*RC frac_inter_r1_reg_6_:CK 9.080e-08
*RC c_frac_align_m_r0_reg_22_:CK 6.979e-08
*RC frac_inter_r1_reg_0_:CK 9.087e-08
*RC frac_inter_r1_reg_5_:CK 9.080e-08
*RC res_spec_r2_reg_0_:CK 6.777e-08
*RC res_spec_r2_reg_1_:CK 6.777e-08
*RC res_spec_r2_reg_2_:CK 6.777e-08
*RC res_spec_r2_reg_3_:CK 6.777e-08
*RC res_spec_r2_reg_4_:CK 6.777e-08
*RC res_spec_r2_reg_5_:CK 6.777e-08
*RC res_spec_r2_reg_6_:CK 6.777e-08
*RC res_spec_r2_reg_7_:CK 6.777e-08
*RC res_spec_r2_reg_8_:CK 6.777e-08
*RC res_spec_r2_reg_9_:CK 6.777e-08
*RC res_spec_r2_reg_10_:CK 6.777e-08
*RC res_spec_r2_reg_11_:CK 6.777e-08
*RC res_spec_r2_reg_12_:CK 6.777e-08
*RC res_spec_r2_reg_13_:CK 6.777e-08
*RC res_spec_r2_reg_14_:CK 6.777e-08
*RC res_spec_r2_reg_15_:CK 6.777e-08
*RC res_spec_r2_reg_16_:CK 6.777e-08
*RC res_spec_r2_reg_17_:CK 6.777e-08
*RC res_spec_r2_reg_18_:CK 6.777e-08
*RC res_spec_r2_reg_19_:CK 6.777e-08
*RC res_spec_r2_reg_20_:CK 6.777e-08
*RC res_spec_r2_reg_21_:CK 6.777e-08
*RC res_spec_r2_reg_22_:CK 6.777e-08
*RC res_spec_r2_reg_23_:CK 6.777e-08
*RC res_spec_r2_reg_24_:CK 6.777e-08
*RC res_spec_r2_reg_25_:CK 6.777e-08
*RC res_spec_r2_reg_26_:CK 6.777e-08
*RC res_spec_r2_reg_27_:CK 6.777e-08
*RC res_spec_r2_reg_28_:CK 6.777e-08
*RC res_spec_r2_reg_29_:CK 6.777e-08
*RC res_spec_r2_reg_30_:CK 6.777e-08
*RC res_spec_r2_reg_31_:CK 6.777e-08
*RC op_vld_r2_reg:CK 6.777e-08
*RC res_spec_r1_reg_0_:CK 6.777e-08
*RC res_spec_r1_reg_1_:CK 6.777e-08
*RC res_spec_r1_reg_2_:CK 6.777e-08
*RC res_spec_r1_reg_3_:CK 6.777e-08
*RC res_spec_r1_reg_4_:CK 6.777e-08
*RC res_spec_r1_reg_5_:CK 6.777e-08
*RC res_spec_r1_reg_6_:CK 6.777e-08
*RC res_spec_r1_reg_7_:CK 6.777e-08
*RC res_spec_r1_reg_8_:CK 6.777e-08
*RC res_spec_r1_reg_9_:CK 6.777e-08
*RC res_spec_r1_reg_10_:CK 6.777e-08
*RC res_spec_r1_reg_11_:CK 6.777e-08
*RC res_spec_r1_reg_12_:CK 6.777e-08
*RC res_spec_r1_reg_13_:CK 6.777e-08
*RC res_spec_r1_reg_14_:CK 6.777e-08
*RC res_spec_r1_reg_15_:CK 6.777e-08
*RC res_spec_r1_reg_16_:CK 6.777e-08
*RC res_spec_r1_reg_17_:CK 6.777e-08
*RC res_spec_r1_reg_18_:CK 6.777e-08
*RC res_spec_r1_reg_19_:CK 6.777e-08
*RC res_spec_r1_reg_20_:CK 6.777e-08
*RC res_spec_r1_reg_21_:CK 6.777e-08
*RC res_spec_r1_reg_22_:CK 6.777e-08
*RC res_spec_r1_reg_23_:CK 6.777e-08
*RC res_spec_r1_reg_24_:CK 6.777e-08
*RC res_spec_r1_reg_25_:CK 6.777e-08
*RC res_spec_r1_reg_26_:CK 6.777e-08
*RC res_spec_r1_reg_27_:CK 6.777e-08
*RC res_spec_r1_reg_28_:CK 6.777e-08
*RC res_spec_r1_reg_29_:CK 6.777e-08
*RC res_spec_r1_reg_30_:CK 6.777e-08
*RC res_spec_r1_reg_31_:CK 6.777e-08
*RC op_vld_r1_reg:CK 6.777e-08
*RC spec_mask_r1_reg:CK 6.777e-08
*RC nj_mode_r1_reg:CK 6.777e-08
*RC frac_inter_r1_reg_23_:CK 9.080e-08
*RC sum_r0_reg_27_:CK 6.443e-08
*RC sum_r0_reg_28_:CK 6.443e-08
*RC sum_r0_reg_31_:CK 6.443e-08
*RC sum_r0_reg_24_:CK 6.443e-08
*RC sum_r0_reg_25_:CK 6.443e-08
*RC carry_r0_reg_40_:CK 6.443e-08
*RC sum_r0_reg_20_:CK 6.443e-08
*RC sum_r0_reg_39_:CK 6.443e-08
*RC carry_r0_reg_16_:CK 6.443e-08
*RC carry_r0_reg_43_:CK 6.443e-08
*RC sum_r0_reg_8_:CK 6.443e-08
*RC sum_r0_reg_47_:CK 6.443e-08
*RC frac_inter_r1_reg_33_:CK 9.080e-08
*RC frac_inter_r1_reg_41_:CK 9.080e-08
*RC carry_r0_reg_36_:CK 6.443e-08
*RC sum_r0_reg_35_:CK 6.443e-08
*RC carry_r0_reg_42_:CK 6.443e-08
*RC carry_r0_reg_47_:CK 6.443e-08
*RC sum_r0_reg_46_:CK 6.443e-08
*RC sum_r0_reg_26_:CK 6.443e-08
*RC sum_r0_reg_32_:CK 6.443e-08
*RC sum_r0_reg_36_:CK 6.443e-08
*RC sum_r0_reg_40_:CK 6.443e-08
*RC carry_r0_reg_19_:CK 6.443e-08
*RC carry_r0_reg_35_:CK 6.443e-08
*RC sum_r0_reg_18_:CK 6.443e-08
*RC sum_r0_reg_19_:CK 6.443e-08
*RC sum_r0_reg_34_:CK 6.443e-08
*RC sum_r0_reg_16_:CK 6.443e-08
*RC carry_r0_reg_18_:CK 6.443e-08
*RC sum_r0_reg_17_:CK 6.443e-08
*RC sum_r0_reg_41_:CK 6.443e-08
*RC sum_r0_reg_42_:CK 6.443e-08
*RC exp_tmp_r1_reg_6_:CK 7.465e-08
*RC exp_tmp_r1_reg_3_:CK 9.087e-08
*RC exp_tmp_r1_reg_1_:CK 9.087e-08
*RC spec_mask_r2_reg:CK 6.777e-08
*RC frac_inter_norm_r2_reg_23_:CK 6.777e-08
*RC carry_r0_reg_32_:CK 6.443e-08
*RC carry_r0_reg_33_:CK 6.443e-08
*RC exp_tmp_r0_reg_8_:CK 6.443e-08
*RC exp_tmp_r0_reg_9_:CK 6.443e-08
*RC carry_r0_reg_34_:CK 6.443e-08
*RC carry_r0_reg_37_:CK 6.443e-08
*RC carry_r0_reg_38_:CK 6.443e-08
*RC carry_r0_reg_39_:CK 6.443e-08
*RC carry_r0_reg_41_:CK 6.443e-08
*RC sum_r0_reg_33_:CK 6.443e-08
*RC sum_r0_reg_37_:CK 6.443e-08
*RC sum_r0_reg_38_:CK 6.443e-08
*RC sum_r0_reg_43_:CK 6.443e-08
*RC exp_tmp_r0_reg_1_:CK 6.443e-08
*RC exp_tmp_r0_reg_2_:CK 6.443e-08
*RC exp_tmp_r0_reg_4_:CK 6.443e-08
*RC final_m_r0_reg:CK 6.443e-08
*RC s_tmp_r0_reg:CK 6.443e-08
*RC res_spec_r0_reg_0_:CK 6.443e-08
*RC res_spec_r0_reg_1_:CK 6.443e-08
*RC res_spec_r0_reg_2_:CK 6.443e-08
*RC res_spec_r0_reg_3_:CK 6.443e-08
*RC res_spec_r0_reg_4_:CK 6.443e-08
*RC res_spec_r0_reg_5_:CK 6.443e-08
*RC res_spec_r0_reg_6_:CK 6.443e-08
*RC res_spec_r0_reg_7_:CK 6.443e-08
*RC res_spec_r0_reg_8_:CK 6.443e-08
*RC res_spec_r0_reg_9_:CK 6.443e-08
*RC res_spec_r0_reg_10_:CK 6.443e-08
*RC res_spec_r0_reg_11_:CK 6.443e-08
*RC res_spec_r0_reg_12_:CK 6.443e-08
*RC res_spec_r0_reg_13_:CK 6.443e-08
*RC res_spec_r0_reg_14_:CK 6.443e-08
*RC res_spec_r0_reg_15_:CK 6.443e-08
*RC res_spec_r0_reg_16_:CK 6.443e-08
*RC res_spec_r0_reg_17_:CK 6.443e-08
*RC res_spec_r0_reg_18_:CK 6.443e-08
*RC res_spec_r0_reg_19_:CK 6.443e-08
*RC res_spec_r0_reg_20_:CK 6.443e-08
*RC res_spec_r0_reg_21_:CK 6.443e-08
*RC res_spec_r0_reg_22_:CK 6.443e-08
*RC res_spec_r0_reg_23_:CK 6.443e-08
*RC res_spec_r0_reg_24_:CK 6.443e-08
*RC res_spec_r0_reg_25_:CK 6.443e-08
*RC res_spec_r0_reg_26_:CK 6.443e-08
*RC res_spec_r0_reg_27_:CK 6.443e-08
*RC res_spec_r0_reg_29_:CK 6.443e-08
*RC res_spec_r0_reg_30_:CK 6.443e-08
*RC res_spec_r0_reg_31_:CK 6.443e-08
*RC frac_inter_norm_r2_reg_25_:CK 6.777e-08
*RC frac_inter_norm_r2_reg_20_:CK 6.777e-08
*RC frac_inter_norm_r2_reg_19_:CK 6.777e-08
*RC frac_inter_norm_r2_reg_22_:CK 6.777e-08
*RC frac_inter_norm_r2_reg_24_:CK 6.777e-08
*RC exp_norm_r2_reg_0_:CK 6.777e-08
*RC frac_inter_norm_r2_reg_26_:CK 6.777e-08
*RC exp_tmp_r1_reg_9_:CK 6.777e-08
*RC c_frac_align_h_r0_reg_24_:CK 6.443e-08
*RC exp_norm_r2_reg_7_:CK 6.777e-08
*RC exp_norm_r2_reg_8_:CK 6.777e-08
*RC exp_norm_r2_reg_9_:CK 6.777e-08
*RC nj_mode_r2_reg:CK 6.777e-08
*RC s_final_r2_reg:CK 6.777e-08
*RC final_m_r1_reg:CK 6.777e-08
*RC s_tmp_r1_reg:CK 6.777e-08
*RC exp_norm_r2_reg_1_:CK 6.777e-08
*RC exp_norm_r2_reg_3_:CK 6.777e-08
*RC sum_r0_reg_12_:CK 6.979e-08
*RC sum_r0_reg_11_:CK 6.979e-08
*RC sum_r0_reg_5_:CK 6.979e-08
*RC sum_r0_reg_1_:CK 6.979e-08
*RC exp_tmp_r1_reg_0_:CK 9.087e-08
*RC carry_r0_reg_22_:CK 6.979e-08
*RC carry_r0_reg_13_:CK 6.979e-08
*RC carry_r0_reg_12_:CK 6.979e-08
*RC carry_r0_reg_6_:CK 6.979e-08
*RC carry_r0_reg_1_:CK 6.979e-08
*RC carry_r0_reg_0_:CK 6.979e-08
*END

*R_NET nj_mode 2.269e-01
*DRIVER nj_mode
*CELL NULL
*C2_R1_C1 1.134e-01 6.800e-05 1.134e-01 
*LOADS
*RC unpackage_b/U22:A1 1.281e-07
*RC unpackage_b/U31:A1 1.281e-07
*RC unpackage_b/U45:AN 8.281e-08
*RC unpackage_b/U49:A1 1.281e-07
*RC unpackage_c/U3:AN 8.281e-08
*RC unpackage_c/U91:A1 1.281e-07
*RC spec_handler_inst/U11:A 9.007e-08
*RC spec_handler_inst/U155:A 7.304e-08
*RC nj_mode_r0_reg:D 6.532e-08
*RC unpackage_a/U25:B 1.803e-07
*RC unpackage_a/U33:AN 8.235e-08
*RC unpackage_a/U68:A 1.166e-07
*END

*R_NET a\[31\] 2.438e-02
*DRIVER a\[31\]
*CELL NULL
*C2_R1_C1 1.219e-02 1.133e-05 1.219e-02 
*LOADS
*RC spec_handler_inst/U157:A 6.747e-08
*RC unpackage_a/U23:A 7.065e-08
*END

*R_NET a\[30\] 7.178e-02
*DRIVER a\[30\]
*CELL NULL
*C2_R1_C1 3.589e-02 2.267e-05 3.589e-02 
*LOADS
*RC spec_handler_inst/U151:A 7.415e-08
*RC unpackage_a/U37:A 1.873e-07
*RC unpackage_a/U73:A 7.564e-08
*RC unpackage_a/U81:A 6.971e-08
*END

*R_NET a\[29\] 7.010e-02
*DRIVER a\[29\]
*CELL NULL
*C2_R1_C1 3.505e-02 2.267e-05 3.505e-02 
*LOADS
*RC spec_handler_inst/U147:A 7.415e-08
*RC unpackage_a/U37:B 1.803e-07
*RC unpackage_a/U79:A 6.971e-08
*RC unpackage_a/U106:A 7.304e-08
*END

*R_NET a\[28\] 9.851e-02
*DRIVER a\[28\]
*CELL NULL
*C2_R1_C1 4.925e-02 2.833e-05 4.925e-02 
*LOADS
*RC spec_handler_inst/U144:A 7.415e-08
*RC unpackage_a/U27:A 1.490e-07
*RC unpackage_a/U32:A 1.873e-07
*RC unpackage_a/U72:B 7.805e-08
*RC unpackage_a/U82:A 6.971e-08
*END

*R_NET a\[27\] 1.098e-01
*DRIVER a\[27\]
*CELL NULL
*C2_R1_C1 5.489e-02 2.267e-05 5.489e-02 
*LOADS
*RC spec_handler_inst/U141:A 7.415e-08
*RC unpackage_a/U32:B 1.803e-07
*RC unpackage_a/U67:A 2.979e-07
*RC unpackage_a/U80:A 6.971e-08
*END

*R_NET a\[26\] 1.131e-01
*DRIVER a\[26\]
*CELL NULL
*C2_R1_C1 5.655e-02 2.833e-05 5.655e-02 
*LOADS
*RC spec_handler_inst/U138:A 7.415e-08
*RC unpackage_a/U31:A 1.873e-07
*RC unpackage_a/U66:B 2.041e-07
*RC unpackage_a/U71:A 1.057e-07
*RC unpackage_a/U84:A 6.971e-08
*END

*R_NET a\[25\] 1.459e-01
*DRIVER a\[25\]
*CELL NULL
*C2_R1_C1 7.295e-02 3.967e-05 7.295e-02 
*LOADS
*RC spec_handler_inst/U136:A 7.415e-08
*RC unpackage_a/U22:B 1.511e-07
*RC unpackage_a/U31:B 1.803e-07
*RC unpackage_a/U66:A 2.078e-07
*RC unpackage_a/U70:A 7.304e-08
*RC unpackage_a/U74:B 7.057e-08
*RC unpackage_a/U83:A 6.971e-08
*END

*R_NET a\[24\] 1.405e-01
*DRIVER a\[24\]
*CELL NULL
*C2_R1_C1 7.023e-02 3.967e-05 7.023e-02 
*LOADS
*RC spec_handler_inst/U134:A 7.415e-08
*RC unpackage_a/U42:A 1.873e-07
*RC unpackage_a/U64:A 1.166e-07
*RC unpackage_a/U66:C 2.043e-07
*RC unpackage_a/U74:A 6.932e-08
*RC unpackage_a/U85:A 6.971e-08
*RC unpackage_a/U86:B 7.461e-08
*END

*R_NET a\[23\] 1.509e-01
*DRIVER a\[23\]
*CELL NULL
*C2_R1_C1 7.547e-02 2.833e-05 7.547e-02 
*LOADS
*RC spec_handler_inst/U132:A 7.415e-08
*RC unpackage_a/U29:A 3.176e-07
*RC unpackage_a/U42:B 1.803e-07
*RC unpackage_a/U66:D 2.077e-07
*RC unpackage_a/U86:A 7.564e-08
*END

*R_NET a\[22\] 3.242e-02
*DRIVER a\[22\]
*CELL NULL
*C2_R1_C1 1.621e-02 1.133e-05 1.621e-02 
*LOADS
*RC spec_handler_inst/U160:A 7.415e-08
*RC unpackage_a/U20:A 1.096e-07
*END

*R_NET a\[21\] 6.016e-02
*DRIVER a\[21\]
*CELL NULL
*C2_R1_C1 3.008e-02 1.133e-05 3.008e-02 
*LOADS
*RC spec_handler_inst/U225:A 7.304e-08
*RC unpackage_a/U36:A 2.678e-07
*END

*R_NET a\[20\] 3.858e-02
*DRIVER a\[20\]
*CELL NULL
*C2_R1_C1 1.929e-02 1.133e-05 1.929e-02 
*LOADS
*RC spec_handler_inst/U222:A 7.304e-08
*RC unpackage_a/U76:A 1.456e-07
*END

*R_NET a\[19\] 4.726e-02
*DRIVER a\[19\]
*CELL NULL
*C2_R1_C1 2.363e-02 1.700e-05 2.363e-02 
*LOADS
*RC spec_handler_inst/U219:A 7.304e-08
*RC unpackage_a/U75:A 1.235e-07
*RC unpackage_a/U95:A 7.126e-08
*END

*R_NET a\[18\] 4.676e-02
*DRIVER a\[18\]
*CELL NULL
*C2_R1_C1 2.338e-02 1.700e-05 2.338e-02 
*LOADS
*RC spec_handler_inst/U216:A 7.304e-08
*RC unpackage_a/U75:B 1.206e-07
*RC unpackage_a/U105:A 7.126e-08
*END

*R_NET a\[17\] 4.676e-02
*DRIVER a\[17\]
*CELL NULL
*C2_R1_C1 2.338e-02 1.700e-05 2.338e-02 
*LOADS
*RC spec_handler_inst/U244:A 7.304e-08
*RC unpackage_a/U46:B 1.206e-07
*RC unpackage_a/U93:A 7.126e-08
*END

*R_NET a\[16\] 4.702e-02
*DRIVER a\[16\]
*CELL NULL
*C2_R1_C1 2.351e-02 1.700e-05 2.351e-02 
*LOADS
*RC spec_handler_inst/U240:A 7.304e-08
*RC unpackage_a/U10:B 7.277e-08
*RC unpackage_a/U51:B 1.206e-07
*END

*R_NET a\[15\] 4.753e-02
*DRIVER a\[15\]
*CELL NULL
*C2_R1_C1 2.376e-02 1.700e-05 2.376e-02 
*LOADS
*RC spec_handler_inst/U236:A 7.304e-08
*RC unpackage_a/U8:B 7.277e-08
*RC unpackage_a/U51:A 1.235e-07
*END

*R_NET a\[14\] 4.676e-02
*DRIVER a\[14\]
*CELL NULL
*C2_R1_C1 2.338e-02 1.700e-05 2.338e-02 
*LOADS
*RC spec_handler_inst/U232:A 7.304e-08
*RC unpackage_a/U52:B 1.206e-07
*RC unpackage_a/U94:A 7.126e-08
*END

*R_NET a\[13\] 4.726e-02
*DRIVER a\[13\]
*CELL NULL
*C2_R1_C1 2.363e-02 1.700e-05 2.363e-02 
*LOADS
*RC spec_handler_inst/U228:A 7.304e-08
*RC unpackage_a/U46:A 1.235e-07
*RC unpackage_a/U96:A 7.126e-08
*END

*R_NET a\[12\] 4.726e-02
*DRIVER a\[12\]
*CELL NULL
*C2_R1_C1 2.363e-02 1.700e-05 2.363e-02 
*LOADS
*RC spec_handler_inst/U213:A 7.304e-08
*RC unpackage_a/U52:A 1.235e-07
*RC unpackage_a/U104:A 7.126e-08
*END

*R_NET a\[11\] 4.676e-02
*DRIVER a\[11\]
*CELL NULL
*C2_R1_C1 2.338e-02 1.700e-05 2.338e-02 
*LOADS
*RC spec_handler_inst/U210:A 7.304e-08
*RC unpackage_a/U89:B 1.206e-07
*RC unpackage_a/U92:A 7.126e-08
*END

*R_NET a\[10\] 4.676e-02
*DRIVER a\[10\]
*CELL NULL
*C2_R1_C1 2.338e-02 1.700e-05 2.338e-02 
*LOADS
*RC spec_handler_inst/U206:A 7.304e-08
*RC unpackage_a/U88:B 1.206e-07
*RC unpackage_a/U97:A 7.126e-08
*END

*R_NET a\[9\] 4.726e-02
*DRIVER a\[9\]
*CELL NULL
*C2_R1_C1 2.363e-02 1.700e-05 2.363e-02 
*LOADS
*RC spec_handler_inst/U202:A 7.304e-08
*RC unpackage_a/U88:A 1.235e-07
*RC unpackage_a/U100:A 7.126e-08
*END

*R_NET a\[8\] 4.676e-02
*DRIVER a\[8\]
*CELL NULL
*C2_R1_C1 2.338e-02 1.700e-05 2.338e-02 
*LOADS